/*--------------------------------*- C++ -*----------------------------------*\
| =========                 |                                                 |
| \\      /  F ield         | OpenFOAM: The Open Source CFD Toolbox           |
|  \\    /   O peration     | Version:  v1906                                 |
|   \\  /    A nd           | Web:      www.OpenFOAM.com                      |
|    \\/     M anipulation  |                                                 |
\*---------------------------------------------------------------------------*/
FoamFile
{
    version     2.0;
    format      ascii;
    class       dictionary;
    object      topoSetDict;
}
// * * * * * * * * * * * * * * * * * * * * * * * * * * * * * * * * * * * * * //

X0	-0.8;
Y0	5.01;//5.201;
Z0	-0.01;

X1	0.8;
Y1	7.8;
Z1	0.01;

actions
(
    {
        name    c0;
        type    cellSet;
        action  new;
        source  boxToCell;
        box     ($X0 $Y0 $Z0) ($X1 $Y1 $Z1);
    }

    {
        name    c0;
        type    cellSet;
        action  invert;
    }
);

// ************************************************************************* //
