/*--------------------------------*- C++ -*----------------------------------*\
| =========                 |                                                 |
| \\      /  F ield         | OpenFOAM: The Open Source CFD Toolbox           |
|  \\    /   O peration     | Version:  v1906                                 |
|   \\  /    A nd           | Web:      www.OpenFOAM.com                      |
|    \\/     M anipulation  |                                                 |
\*---------------------------------------------------------------------------*/
FoamFile
{
    version     2.0;
    format      ascii;
    class       dictionary;
    object      topoSetDict;
}
// * * * * * * * * * * * * * * * * * * * * * * * * * * * * * * * * * * * * * //

<<<<<<< HEAD
X0	-0.8;
Y0	-8.0;//-1.9;5.01;
Z0	-0.01;

X1	0.8;
Y1	1;//4.8
=======
X0	-1.4;
Y0	-19.4;//-3.0;-1.9;5.01;
Z0	-0.01;

X1	1.4;
Y1	0.2;//4.8
>>>>>>> 146e24994ec2a428bb7fb3ac6e36daf18435f9b6
Z1	0.01;

actions
(
    {
        name    c0;
        type    cellSet;
        action  new;
        source  boxToCell;
        box     ($X0 $Y0 $Z0) ($X1 $Y1 $Z1);
    }

    {
        name    c0;
        type    cellSet;
        action  invert;
    }
);

// ************************************************************************* //
/* searchBox (-2 -20 -0.02) (2 0.8 0.02);
searchBoxDivisions  (200 200 1);
holeLayers          4;
useLayer            2;
} */