/*--------------------------------*- C++ -*----------------------------------*\
| =========                 |                                                 |
| \\      /  F ield         | OpenFOAM: The Open Source CFD Toolbox           |
|  \\    /   O peration     | Version:  v1812                                 |
|   \\  /    A nd           | Web:      www.OpenFOAM.com                      |
|    \\/     M anipulation  |                                                 |
\*---------------------------------------------------------------------------*/
FoamFile
{
    version     2.0;
    format      ascii;
    class       dictionary;
    object      blockMeshDict;
}
// * * * * * * * * * * * * * * * * * * * * * * * * * * * * * * * * * * * * * //
scale   1;

X0	-10.0;
Y0	-20.00;
Z0	-0.01;

X1	10.0;
Y1	0;
Z1	0.01;

nx	100;
ny	100;
nz	1;

vertices
(
    ($X0 $Y0 $Z0)
    ($X1 $Y0 $Z0)
    ($X1 $Y1 $Z0)
    ($X0 $Y1 $Z0)
    ($X0 $Y0 $Z1)
    ($X1 $Y0 $Z1)
    ($X1 $Y1 $Z1)
    ($X0 $Y1 $Z1)
);

blocks
(
    hex (0 1 2 3 4 5 6 7) dummy ($nx $ny $nz) simpleGrading (1 1 1)
);

edges
(
);

boundary
(

    dummy
    {
        type empty;
        faces
        (
            (2 6 5 1)
            (0 4 7 3)
            (1 5 4 0)
            (2 3 7 6)
            (0 3 2 1)
            (4 5 6 7)
        );
    }
    
    dummyPatch
    {
        type wall;
        faces ();
    }


);

// ************************************************************************* //
