/*--------------------------------*- C++ -*----------------------------------*\
| =========                 |                                                 |
| \\      /  F ield         | OpenFOAM: The Open Source CFD Toolbox           |
|  \\    /   O peration     | Version:  v1812                                 |
|   \\  /    A nd           | Web:      www.OpenFOAM.com                      |
|    \\/     M anipulation  |                                                 |
\*---------------------------------------------------------------------------*/
FoamFile
{
    version     2.0;
    format      ascii;
    class       dictionary;
    object      dynamicMeshDict;
}
// * * * * * * * * * * * * * * * * * * * * * * * * * * * * * * * * * * * * * //

dynamicFvMesh       dynamicOversetFvMesh;

dynamicOversetFvMeshCoeffs {}

solver          multiSolidBodyMotionSolver;

multiSolidBodyMotionSolverCoeffs
{
    movingZone
    {
        solidBodyMotionFunction linearMotion;
<<<<<<< HEAD
		velocity (0 20 0);
=======
		velocity (0 100 0);
>>>>>>> 146e24994ec2a428bb7fb3ac6e36daf18435f9b6
		
		/*oscillatingLinearMotion;
        oscillatingLinearMotionCoeffs
        {
            amplitude       (0.3 0 0);
            omega           2.5;
        }*/ 

<<<<<<< HEAD
        // solidBodyMotionFunction oscillatingLinearMotion;
        // oscillatingLinearMotionCoeffs
        // {
        //     amplitude       (0 2 0); //displacement
        //     omega           100; //velocity
        // }
=======
        /*solidBodyMotionFunction oscillatingLinearMotion;
        oscillatingLinearMotionCoeffs
        {
            amplitude       (0 2 0); //displacement
            omega           100; //velocity
        }*/
>>>>>>> 146e24994ec2a428bb7fb3ac6e36daf18435f9b6
    }
}


// ************************************************************************* //
