/*--------------------------------*- C++ -*----------------------------------*\
| =========                 |                                                 |
| \\      /  F ield         | OpenFOAM: The Open Source CFD Toolbox           |
|  \\    /   O peration     | Version:  v1812                                 |
|   \\  /    A nd           | Web:      www.OpenFOAM.com                      |
|    \\/     M anipulation  |                                                 |
\*---------------------------------------------------------------------------*/
FoamFile
{
    version     2.0;
    format      ascii;
    class       dictionary;
    object      fvSchemes;
}
// * * * * * * * * * * * * * * * * * * * * * * * * * * * * * * * * * * * * * //

ddtSchemes
{
    default         Euler;
}

gradSchemes
{
    default         cellLimited Gauss linear 1;
}

divSchemes
{
    div(rhoPhi,U)   Gauss linearUpwind grad(U);
    div(phi,alpha)  Gauss vanLeer;
    div(phirb,alpha) Gauss linear;
    div(((rho*nuEff)*dev2(T(grad(U))))) Gauss linear;

    div(phi,k)      Gauss upwind;
    div(phi,epsilon) Gauss upwind;
    div(phi,omega) Gauss upwind;
}

laplacianSchemes
{
    default         Gauss linear corrected ;
}

interpolationSchemes
{
    default         linear;
}

snGradSchemes
{
    default         corrected;
}

oversetInterpolation
{
//    method          cellVolumeWeight;
    method          inverseDistance;
    searchBox (-2 -20 -0.02) (2 0.8 0.02);
searchBoxDivisions  (200 200 1);
holeLayers          4;
useLayer            2;

<<<<<<< HEAD
    searchBox (-4 -10 -0.1) (4 20 0.1);
    searchBoxDivisions  (100 100 1);
    holeLayers          4;
    useLayer            2;
=======
>>>>>>> 146e24994ec2a428bb7fb3ac6e36daf18435f9b6
}

oversetInterpolationSuppressed
{
    grad(p_rgh);
    surfaceIntegrate(phiHbyA);
}

fluxRequired
{
    default         no;
    p_rgh;
    pcorr;
    alpha.water;
}

// ************************************************************************* //
